 CRYSTAL
 PRIMVEC
   2.71467801000000        2.71467801000000       0.000000000000000E+000
   2.71467801000000       0.000000000000000E+000   2.71467801000000     
  0.000000000000000E+000   2.71467801000000        2.71467801000000     
 PRIMCOORD
           2  1
   14    0.00000000    0.00000000    0.00000000
   14    1.35733901    1.35733901    1.35733901
 
 BEGIN_BLOCK_DATAGRID_2D
 module squared
 BEGIN_DATAGRID_2D
          11          11
  0.000000000000000E+000  0.000000000000000E+000  0.000000000000000E+000
   2.71467801000000        2.71467801000000       0.000000000000000E+000
   2.71467801000000       0.000000000000000E+000   2.71467801000000     
    0.2263851146E+01    0.7836208855E-04    0.1194054286E-01    0.7476509748E-02    0.3427864702E-02    0.1152108550E-02    0.6953454090E-04    0.4514026532E-03
    0.2534987071E-02    0.3266090030E-04    0.2263851146E+01    0.2599532220E-04    0.1183529829E-01    0.1179309712E-01    0.7437104514E-02    0.4009525192E-02
    0.1371088920E-02    0.6062859277E-04    0.5495502319E-03    0.1867078222E-02    0.3266089407E-04    0.2599532220E-04    0.1019993930E-01    0.1173316344E-01
    0.1019332494E-01    0.7842693742E-02    0.4366140193E-02    0.1430057529E-02    0.5503201819E-04    0.5495502213E-03    0.2534987112E-02    0.5358715752E-02
    0.1019993930E-01    0.7345523439E-02    0.8834951527E-02    0.9608655534E-02    0.7628106124E-02    0.4183801350E-02    0.1430057510E-02    0.6062859675E-04
    0.4514026350E-03    0.2405213650E-02    0.5149213542E-02    0.7345523439E-02    0.5130220994E-02    0.7740787728E-02    0.9342714716E-02    0.7628106180E-02
    0.4366140189E-02    0.1371088894E-02    0.6953454471E-04    0.2745618184E-03    0.1424876652E-02    0.3063860700E-02    0.5130220994E-02    0.4548517653E-02
    0.7740787704E-02    0.9608655586E-02    0.7842693812E-02    0.4009525188E-02    0.1152108551E-02    0.7319932375E-04    0.1383333107E-03    0.8551478637E-03
    0.2208639771E-02    0.4548517653E-02    0.5130220947E-02    0.8834951394E-02    0.1019332484E-01    0.7437104406E-02    0.3427864669E-02    0.9509322918E-03
    0.7588636589E-04    0.8377291087E-04    0.7032206823E-03    0.2208639780E-02    0.5130220947E-02    0.7345523436E-02    0.1173316340E-01    0.1179309704E-01
    0.7476509630E-02    0.3159135803E-02    0.8729975814E-03    0.7804298730E-04    0.8377290725E-04    0.8551478667E-03    0.3063860733E-02    0.7345523436E-02
    0.1019993933E-01    0.1183529837E-01    0.1194054287E-01    0.7797106689E-02    0.3124594508E-02    0.8729975708E-03    0.7588636626E-04    0.1383333040E-03
    0.1424876659E-02    0.5149213561E-02    0.1019993933E-01    0.2599532261E-04    0.7836208109E-04    0.9851059564E-02    0.7797106716E-02    0.3159135823E-02
    0.9509322722E-03    0.7319932277E-04    0.2745618216E-03    0.2405213623E-02    0.5358715674E-02    0.2599532261E-04    0.2263851146E+01    0.7836208855E-04
    0.1194054286E-01    0.7476509748E-02    0.3427864702E-02    0.1152108550E-02    0.6953454090E-04    0.4514026532E-03    0.2534987071E-02    0.3266090030E-04
    0.2263851146E+01
 END_DATAGRID_2D
 END_BLOCK_DATAGRID_2D
 BEGIN_BLOCK_DATAGRID_2D
 real
 BEGIN_DATAGRID_2D
          11          11
  0.000000000000000E+000  0.000000000000000E+000  0.000000000000000E+000
   2.71467801000000        2.71467801000000       0.000000000000000E+000
   2.71467801000000       0.000000000000000E+000   2.71467801000000     
    0.1063919909E+01   -0.6259476358E-02    0.7726753152E-01    0.6114126981E-01    0.4139966608E-01    0.2400113070E-01    0.5896377740E-02   -0.1502335936E-01
   -0.3560187545E-01    0.4041095167E-02   -0.1063919909E+01    0.3605226914E-02    0.7692625784E-01    0.7678898723E-01    0.6097993323E-01    0.4477457533E-01
    0.2618290396E-01    0.5505842023E-02   -0.1657634206E-01   -0.3055387227E-01    0.4041094782E-02   -0.3605226914E-02    0.7141407179E-01    0.7659361408E-01
    0.7139091308E-01    0.6262065850E-01    0.4672333568E-01    0.2674002178E-01    0.5245570426E-02   -0.1657634190E-01   -0.3560187574E-01   -0.5176251420E-01
   -0.7141407179E-01    0.6060331443E-01    0.6646409379E-01    0.6931325823E-01    0.6175802022E-01    0.4573730070E-01    0.2674002160E-01    0.5505842204E-02
   -0.1502335906E-01   -0.3467862202E-01   -0.5074058308E-01   -0.6060331443E-01    0.5064691992E-01    0.6221248961E-01    0.6834732883E-01    0.6175802045E-01
    0.4672333565E-01    0.2618290372E-01    0.5896377901E-02   -0.1171669361E-01   -0.2669154035E-01   -0.3913988184E-01   -0.5064691992E-01    0.4768918983E-01
    0.6221248952E-01    0.6931325842E-01    0.6262065878E-01    0.4477457531E-01    0.2400113072E-01    0.6049765440E-02   -0.8316649287E-02   -0.2067786091E-01
   -0.3323130881E-01   -0.4768918983E-01    0.5064691969E-01    0.6646409329E-01    0.7139091271E-01    0.6097993279E-01    0.4139966587E-01    0.2180518622E-01
    0.6159803807E-02   -0.6471974616E-02   -0.1875127572E-01   -0.3323130889E-01   -0.5064691969E-01    0.6060331441E-01    0.7659361396E-01    0.7678898698E-01
    0.6114126933E-01    0.3974377815E-01    0.2089255348E-01    0.6246718630E-02   -0.6471974477E-02   -0.2067786095E-01   -0.3913988204E-01   -0.6060331441E-01
    0.7141407189E-01    0.7692625809E-01    0.7726753157E-01    0.6243839639E-01    0.3952590611E-01    0.2089255335E-01    0.6159803822E-02   -0.8316649085E-02
   -0.2669154041E-01   -0.5074058317E-01   -0.7141407189E-01    0.3605226942E-02   -0.6259476060E-02    0.7018211868E-01    0.6243839651E-01    0.3974377827E-01
    0.2180518599E-01    0.6049765399E-02   -0.1171669368E-01   -0.3467862182E-01   -0.5176251382E-01   -0.3605226942E-02    0.1063919909E+01   -0.6259476358E-02
    0.7726753152E-01    0.6114126981E-01    0.4139966608E-01    0.2400113070E-01    0.5896377740E-02   -0.1502335936E-01   -0.3560187545E-01    0.4041095167E-02
   -0.1063919909E+01
 END_DATAGRID_2D
 END_BLOCK_DATAGRID_2D
 BEGIN_BLOCK_DATAGRID_2D
 imaginary
 BEGIN_DATAGRID_2D
          11          11
  0.000000000000000E+000  0.000000000000000E+000  0.000000000000000E+000
   2.71467801000000        2.71467801000000       0.000000000000000E+000
   2.71467801000000       0.000000000000000E+000   2.71467801000000     
    0.1063919909E+01   -0.6259476358E-02    0.7726753152E-01    0.6114126981E-01    0.4139966608E-01    0.2400113070E-01    0.5896377740E-02   -0.1502335936E-01
   -0.3560187545E-01    0.4041095167E-02   -0.1063919909E+01    0.3605226914E-02    0.7692625784E-01    0.7678898723E-01    0.6097993323E-01    0.4477457533E-01
    0.2618290396E-01    0.5505842023E-02   -0.1657634206E-01   -0.3055387227E-01    0.4041094782E-02   -0.3605226914E-02    0.7141407179E-01    0.7659361408E-01
    0.7139091308E-01    0.6262065850E-01    0.4672333568E-01    0.2674002178E-01    0.5245570426E-02   -0.1657634190E-01   -0.3560187574E-01   -0.5176251420E-01
   -0.7141407179E-01    0.6060331443E-01    0.6646409379E-01    0.6931325823E-01    0.6175802022E-01    0.4573730070E-01    0.2674002160E-01    0.5505842204E-02
   -0.1502335906E-01   -0.3467862202E-01   -0.5074058308E-01   -0.6060331443E-01    0.5064691992E-01    0.6221248961E-01    0.6834732883E-01    0.6175802045E-01
    0.4672333565E-01    0.2618290372E-01    0.5896377901E-02   -0.1171669361E-01   -0.2669154035E-01   -0.3913988184E-01   -0.5064691992E-01    0.4768918983E-01
    0.6221248952E-01    0.6931325842E-01    0.6262065878E-01    0.4477457531E-01    0.2400113072E-01    0.6049765440E-02   -0.8316649287E-02   -0.2067786091E-01
   -0.3323130881E-01   -0.4768918983E-01    0.5064691969E-01    0.6646409329E-01    0.7139091271E-01    0.6097993279E-01    0.4139966587E-01    0.2180518622E-01
    0.6159803807E-02   -0.6471974616E-02   -0.1875127572E-01   -0.3323130889E-01   -0.5064691969E-01    0.6060331441E-01    0.7659361396E-01    0.7678898698E-01
    0.6114126933E-01    0.3974377815E-01    0.2089255348E-01    0.6246718630E-02   -0.6471974477E-02   -0.2067786095E-01   -0.3913988204E-01   -0.6060331441E-01
    0.7141407189E-01    0.7692625809E-01    0.7726753157E-01    0.6243839639E-01    0.3952590611E-01    0.2089255335E-01    0.6159803822E-02   -0.8316649085E-02
   -0.2669154041E-01   -0.5074058317E-01   -0.7141407189E-01    0.3605226942E-02   -0.6259476060E-02    0.7018211868E-01    0.6243839651E-01    0.3974377827E-01
    0.2180518599E-01    0.6049765399E-02   -0.1171669368E-01   -0.3467862182E-01   -0.5176251382E-01   -0.3605226942E-02    0.1063919909E+01   -0.6259476358E-02
    0.7726753152E-01    0.6114126981E-01    0.4139966608E-01    0.2400113070E-01    0.5896377740E-02   -0.1502335936E-01   -0.3560187545E-01    0.4041095167E-02
   -0.1063919909E+01
 END_DATAGRID_2D
 END_BLOCK_DATAGRID_2D
