 CRYSTAL
 PRIMVEC
   2.71467801000000        2.71467801000000       0.000000000000000E+000
   2.71467801000000       0.000000000000000E+000   2.71467801000000     
  0.000000000000000E+000   2.71467801000000        2.71467801000000     
 PRIMCOORD
           2  1
   14    0.00000000    0.00000000    0.00000000
   14    1.35733901    1.35733901    1.35733901
 
 BEGIN_BLOCK_DATAGRID_2D
 module squared
 BEGIN_DATAGRID_2D
          11          11
  0.000000000000000E+000  0.000000000000000E+000  0.000000000000000E+000
   2.71467801000000        2.71467801000000       0.000000000000000E+000
   2.71467801000000       0.000000000000000E+000   2.71467801000000     
    0.2027570704E+01    0.5044159650E-05    0.7575635765E-02    0.5306614387E-02    0.3584619749E-02    0.3129446817E-02    0.3584619741E-02    0.5306614375E-02
    0.7575635756E-02    0.5044159685E-05    0.2027570704E+01    0.5044159650E-05    0.7449793175E-02    0.7555337961E-02    0.5660476449E-02    0.4945725787E-02
    0.4945725793E-02    0.5660476428E-02    0.7555337937E-02    0.7449793194E-02    0.5044158753E-05    0.5044159650E-05    0.7575635765E-02    0.7555337961E-02
    0.6718452038E-02    0.6551713229E-02    0.6424142203E-02    0.6551713231E-02    0.6718451974E-02    0.7555337922E-02    0.7575635784E-02    0.6396056324E-02
    0.7575635765E-02    0.5306614387E-02    0.5660476449E-02    0.6551713229E-02    0.6739426155E-02    0.6739426165E-02    0.6551713220E-02    0.5660476377E-02
    0.5306614340E-02    0.5370381840E-02    0.5370381846E-02    0.5306614387E-02    0.3584619749E-02    0.4945725787E-02    0.6424142203E-02    0.6739426165E-02
    0.6424142226E-02    0.4945725804E-02    0.3584619727E-02    0.2935691490E-02    0.2778645850E-02    0.2935691520E-02    0.3584619749E-02    0.3129446817E-02
    0.4945725793E-02    0.6551713231E-02    0.6551713220E-02    0.4945725804E-02    0.3129446849E-02    0.2014687733E-02    0.1571923527E-02    0.1571923532E-02
    0.2014687725E-02    0.3129446817E-02    0.3584619741E-02    0.5660476428E-02    0.6718451974E-02    0.5660476377E-02    0.3584619727E-02    0.2014687733E-02
    0.1259985027E-02    0.1053603940E-02    0.1259985021E-02    0.2014687719E-02    0.3584619741E-02    0.5306614375E-02    0.7555337937E-02    0.7555337922E-02
    0.5306614340E-02    0.2935691490E-02    0.1571923527E-02    0.1053603940E-02    0.1053603937E-02    0.1571923531E-02    0.2935691516E-02    0.5306614375E-02
    0.7575635756E-02    0.7449793194E-02    0.7575635784E-02    0.5370381840E-02    0.2778645850E-02    0.1571923532E-02    0.1259985021E-02    0.1571923531E-02
    0.2778645868E-02    0.5370381840E-02    0.7575635756E-02    0.5044159685E-05    0.5044158753E-05    0.6396056324E-02    0.5370381846E-02    0.2935691520E-02
    0.2014687725E-02    0.2014687719E-02    0.2935691516E-02    0.5370381840E-02    0.6396056290E-02    0.5044159685E-05    0.2027570704E+01    0.5044159650E-05
    0.7575635765E-02    0.5306614387E-02    0.3584619749E-02    0.3129446817E-02    0.3584619741E-02    0.5306614375E-02    0.7575635756E-02    0.5044159685E-05
    0.2027570704E+01
 END_DATAGRID_2D
 END_BLOCK_DATAGRID_2D
 BEGIN_BLOCK_DATAGRID_2D
 real
 BEGIN_DATAGRID_2D
          11          11
  0.000000000000000E+000  0.000000000000000E+000  0.000000000000000E+000
   2.71467801000000        2.71467801000000       0.000000000000000E+000
   2.71467801000000       0.000000000000000E+000   2.71467801000000     
   -0.1006868836E+01    0.1588105345E-02   -0.6154523557E-01   -0.5151025034E-01   -0.4233567047E-01   -0.3955657517E-01   -0.4233567041E-01   -0.5151025028E-01
   -0.6154523553E-01    0.1588105350E-02   -0.1006868836E+01    0.1588105345E-02   -0.6103191589E-01   -0.6146272955E-01   -0.5319997024E-01   -0.4972787627E-01
   -0.4972787630E-01   -0.5319997014E-01   -0.6146272945E-01   -0.6103191597E-01    0.1588105203E-02    0.1588105345E-02   -0.6154523557E-01   -0.6146272955E-01
   -0.5795881614E-01   -0.5723508544E-01   -0.5667512261E-01   -0.5723508544E-01   -0.5795881586E-01   -0.6146272939E-01   -0.6154523564E-01   -0.5655109716E-01
   -0.6154523557E-01   -0.5151025034E-01   -0.5319997024E-01   -0.5723508544E-01   -0.5804921551E-01   -0.5804921555E-01   -0.5723508539E-01   -0.5319996990E-01
   -0.5151025011E-01   -0.5181881512E-01   -0.5181881515E-01   -0.5151025034E-01   -0.4233567047E-01   -0.4972787627E-01   -0.5667512261E-01   -0.5804921555E-01
   -0.5667512271E-01   -0.4972787635E-01   -0.4233567033E-01   -0.3831246564E-01   -0.3727361321E-01   -0.3831246584E-01   -0.4233567047E-01   -0.3955657517E-01
   -0.4972787630E-01   -0.5723508544E-01   -0.5723508539E-01   -0.4972787635E-01   -0.3955657538E-01   -0.3173867312E-01   -0.2803500271E-01   -0.2803500276E-01
   -0.3173867306E-01   -0.3955657517E-01   -0.4233567041E-01   -0.5319997014E-01   -0.5795881586E-01   -0.5319996990E-01   -0.4233567033E-01   -0.3173867312E-01
   -0.2509964549E-01   -0.2295216136E-01   -0.2509964543E-01   -0.3173867301E-01   -0.4233567041E-01   -0.5151025028E-01   -0.6146272945E-01   -0.6146272939E-01
   -0.5151025011E-01   -0.3831246564E-01   -0.2803500271E-01   -0.2295216136E-01   -0.2295216133E-01   -0.2803500275E-01   -0.3831246582E-01   -0.5151025028E-01
   -0.6154523553E-01   -0.6103191597E-01   -0.6154523564E-01   -0.5181881512E-01   -0.3727361321E-01   -0.2803500276E-01   -0.2509964543E-01   -0.2803500275E-01
   -0.3727361334E-01   -0.5181881512E-01   -0.6154523553E-01    0.1588105350E-02    0.1588105203E-02   -0.5655109716E-01   -0.5181881515E-01   -0.3831246584E-01
   -0.3173867306E-01   -0.3173867301E-01   -0.3831246582E-01   -0.5181881512E-01   -0.5655109701E-01    0.1588105350E-02   -0.1006868836E+01    0.1588105345E-02
   -0.6154523557E-01   -0.5151025034E-01   -0.4233567047E-01   -0.3955657517E-01   -0.4233567041E-01   -0.5151025028E-01   -0.6154523553E-01    0.1588105350E-02
   -0.1006868836E+01
 END_DATAGRID_2D
 END_BLOCK_DATAGRID_2D
 BEGIN_BLOCK_DATAGRID_2D
 imaginary
 BEGIN_DATAGRID_2D
          11          11
  0.000000000000000E+000  0.000000000000000E+000  0.000000000000000E+000
   2.71467801000000        2.71467801000000       0.000000000000000E+000
   2.71467801000000       0.000000000000000E+000   2.71467801000000     
   -0.1006869331E+01    0.1588106125E-02   -0.6154526581E-01   -0.5151027565E-01   -0.4233569127E-01   -0.3955659461E-01   -0.4233569122E-01   -0.5151027559E-01
   -0.6154526578E-01    0.1588106131E-02   -0.1006869331E+01    0.1588106125E-02   -0.6103194588E-01   -0.6146275976E-01   -0.5319999639E-01   -0.4972790071E-01
   -0.4972790074E-01   -0.5319999629E-01   -0.6146275966E-01   -0.6103194596E-01    0.1588105984E-02    0.1588106125E-02   -0.6154526581E-01   -0.6146275976E-01
   -0.5795884462E-01   -0.5723511356E-01   -0.5667515047E-01   -0.5723511357E-01   -0.5795884435E-01   -0.6146275960E-01   -0.6154526589E-01   -0.5655112496E-01
   -0.6154526581E-01   -0.5151027565E-01   -0.5319999639E-01   -0.5723511356E-01   -0.5804924404E-01   -0.5804924408E-01   -0.5723511352E-01   -0.5319999605E-01
   -0.5151027542E-01   -0.5181884059E-01   -0.5181884062E-01   -0.5151027565E-01   -0.4233569127E-01   -0.4972790071E-01   -0.5667515047E-01   -0.5804924408E-01
   -0.5667515057E-01   -0.4972790079E-01   -0.4233569114E-01   -0.3831248447E-01   -0.3727363153E-01   -0.3831248467E-01   -0.4233569127E-01   -0.3955659461E-01
   -0.4972790074E-01   -0.5723511357E-01   -0.5723511352E-01   -0.4972790079E-01   -0.3955659482E-01   -0.3173868872E-01   -0.2803501649E-01   -0.2803501654E-01
   -0.3173868866E-01   -0.3955659461E-01   -0.4233569122E-01   -0.5319999629E-01   -0.5795884435E-01   -0.5319999605E-01   -0.4233569114E-01   -0.3173868872E-01
   -0.2509965783E-01   -0.2295217264E-01   -0.2509965777E-01   -0.3173868861E-01   -0.4233569122E-01   -0.5151027559E-01   -0.6146275966E-01   -0.6146275960E-01
   -0.5151027542E-01   -0.3831248447E-01   -0.2803501649E-01   -0.2295217264E-01   -0.2295217261E-01   -0.2803501652E-01   -0.3831248464E-01   -0.5151027559E-01
   -0.6154526578E-01   -0.6103194596E-01   -0.6154526589E-01   -0.5181884059E-01   -0.3727363153E-01   -0.2803501654E-01   -0.2509965777E-01   -0.2803501652E-01
   -0.3727363166E-01   -0.5181884058E-01   -0.6154526578E-01    0.1588106131E-02    0.1588105984E-02   -0.5655112496E-01   -0.5181884062E-01   -0.3831248467E-01
   -0.3173868866E-01   -0.3173868861E-01   -0.3831248464E-01   -0.5181884058E-01   -0.5655112481E-01    0.1588106131E-02   -0.1006869331E+01    0.1588106125E-02
   -0.6154526581E-01   -0.5151027565E-01   -0.4233569127E-01   -0.3955659461E-01   -0.4233569122E-01   -0.5151027559E-01   -0.6154526578E-01    0.1588106131E-02
   -0.1006869331E+01
 END_DATAGRID_2D
 END_BLOCK_DATAGRID_2D
